135450591
  -OEChem-09192208183D

 57 59  0     1  0  0  0  0  0999 V2000
   -0.5828   -1.1052    1.8028 O   0  0  0  0  0  0  0  0  0  0  0  0
   -5.7381    2.9267    0.5906 O   0  0  0  0  0  0  0  0  0  0  0  0
    2.5531    3.3545    0.6000 O   0  0  0  0  0  0  0  0  0  0  0  0
    5.8914    0.9052   -2.2753 O   0  0  0  0  0  0  0  0  0  0  0  0
    3.7785    0.3219   -2.8636 O   0  0  0  0  0  0  0  0  0  0  0  0
    4.7482   -2.8707    1.8480 O   0  0  0  0  0  0  0  0  0  0  0  0
    5.7822   -1.0103    2.6337 O   0  0  0  0  0  0  0  0  0  0  0  0
   -3.2008   -0.6845    0.9545 N   0  0  0  0  0  0  0  0  0  0  0  0
   -4.1927   -2.3460   -0.9589 N   0  0  0  0  0  0  0  0  0  0  0  0
   -3.6862    1.9508   -0.0188 N   0  0  0  0  0  0  0  0  0  0  0  0
   -2.0696   -3.4964   -1.1250 N   0  0  0  0  0  0  0  0  0  0  0  0
   -0.3218   -2.8324    0.2989 N   0  0  0  0  0  0  0  0  0  0  0  0
    2.7226    1.4013   -0.6383 N   0  0  0  0  0  0  0  0  0  0  0  0
    0.0061   -4.5790   -1.2117 N   0  0  0  0  0  0  0  0  0  0  0  0
   -4.4953   -0.3116    0.3998 C   0  0  2  0  0  0  0  0  0  0  0  0
   -5.1632   -1.5493   -0.2236 C   0  0  0  0  0  0  0  0  0  0  0  0
   -4.3047    0.8093   -0.6209 C   0  0  0  0  0  0  0  0  0  0  0  0
   -2.4222   -1.6871    0.4152 C   0  0  0  0  0  0  0  0  0  0  0  0
   -2.8680   -2.5217   -0.5559 C   0  0  0  0  0  0  0  0  0  0  0  0
   -2.2303    2.0665   -0.0098 C   0  0  0  0  0  0  0  0  0  0  0  0
   -1.0332   -1.8278    0.9195 C   0  0  0  0  0  0  0  0  0  0  0  0
   -4.5099    2.9415    0.5535 C   0  0  0  0  0  0  0  0  0  0  0  0
   -1.4793    1.4982   -1.0387 C   0  0  0  0  0  0  0  0  0  0  0  0
   -1.5909    2.7463    1.0270 C   0  0  0  0  0  0  0  0  0  0  0  0
    4.1663    1.3646   -0.6969 C   0  0  1  0  0  0  0  0  0  0  0  0
   -0.8453   -3.6349   -0.7011 C   0  0  0  0  0  0  0  0  0  0  0  0
    0.5505    2.2894    0.0057 C   0  0  0  0  0  0  0  0  0  0  0  0
    4.7885    0.6216    0.4914 C   0  0  0  0  0  0  0  0  0  0  0  0
   -0.0890    1.6097   -1.0310 C   0  0  0  0  0  0  0  0  0  0  0  0
   -0.2006    2.8577    1.0347 C   0  0  0  0  0  0  0  0  0  0  0  0
    2.0000    2.4066    0.0146 C   0  0  0  0  0  0  0  0  0  0  0  0
    4.4257   -0.8637    0.6154 C   0  0  0  0  0  0  0  0  0  0  0  0
    4.5564    0.7963   -2.0458 C   0  0  0  0  0  0  0  0  0  0  0  0
    5.0546   -1.5475    1.8101 C   0  0  0  0  0  0  0  0  0  0  0  0
   -5.1311    0.0540    1.2156 H   0  0  0  0  0  0  0  0  0  0  0  0
   -5.5790   -2.1761    0.5748 H   0  0  0  0  0  0  0  0  0  0  0  0
   -5.9936   -1.2663   -0.8791 H   0  0  0  0  0  0  0  0  0  0  0  0
   -5.2956    1.1046   -0.9910 H   0  0  0  0  0  0  0  0  0  0  0  0
   -3.7757    0.4597   -1.5089 H   0  0  0  0  0  0  0  0  0  0  0  0
   -2.7853   -0.1019    1.6736 H   0  0  0  0  0  0  0  0  0  0  0  0
   -4.5271   -2.9841   -1.6735 H   0  0  0  0  0  0  0  0  0  0  0  0
   -3.9496    3.8006    0.9492 H   0  0  0  0  0  0  0  0  0  0  0  0
   -1.9237    0.9954   -1.8897 H   0  0  0  0  0  0  0  0  0  0  0  0
   -2.1385    3.1707    1.8630 H   0  0  0  0  0  0  0  0  0  0  0  0
    0.6390   -2.9883    0.5888 H   0  0  0  0  0  0  0  0  0  0  0  0
    4.5166    2.4044   -0.6818 H   0  0  0  0  0  0  0  0  0  0  0  0
    5.8815    0.7070    0.4335 H   0  0  0  0  0  0  0  0  0  0  0  0
    4.4959    1.1300    1.4198 H   0  0  0  0  0  0  0  0  0  0  0  0
    0.4549    1.1856   -1.8700 H   0  0  0  0  0  0  0  0  0  0  0  0
    0.2795    3.3807    1.8578 H   0  0  0  0  0  0  0  0  0  0  0  0
    2.2322    0.6052   -1.0327 H   0  0  0  0  0  0  0  0  0  0  0  0
    4.7560   -1.3973   -0.2826 H   0  0  0  0  0  0  0  0  0  0  0  0
    3.3394   -0.9716    0.7091 H   0  0  0  0  0  0  0  0  0  0  0  0
   -0.2908   -5.2111   -1.9472 H   0  0  0  0  0  0  0  0  0  0  0  0
    0.9566   -4.6737   -0.8710 H   0  0  0  0  0  0  0  0  0  0  0  0
    6.1407    0.5514   -3.1555 H   0  0  0  0  0  0  0  0  0  0  0  0
    5.1689   -3.3215    2.6110 H   0  0  0  0  0  0  0  0  0  0  0  0
  1 21  2  0  0  0  0
  2 22  2  0  0  0  0
  3 31  2  0  0  0  0
  4 33  1  0  0  0  0
  4 56  1  0  0  0  0
  5 33  2  0  0  0  0
  6 34  1  0  0  0  0
  6 57  1  0  0  0  0
  7 34  2  0  0  0  0
  8 15  1  0  0  0  0
  8 18  1  0  0  0  0
  8 40  1  0  0  0  0
  9 16  1  0  0  0  0
  9 19  1  0  0  0  0
  9 41  1  0  0  0  0
 10 17  1  0  0  0  0
 10 20  1  0  0  0  0
 10 22  1  0  0  0  0
 11 19  1  0  0  0  0
 11 26  2  0  0  0  0
 12 21  1  0  0  0  0
 12 26  1  0  0  0  0
 12 45  1  0  0  0  0
 13 25  1  0  0  0  0
 13 31  1  0  0  0  0
 13 51  1  0  0  0  0
 14 26  1  0  0  0  0
 14 54  1  0  0  0  0
 14 55  1  0  0  0  0
 15 16  1  0  0  0  0
 15 17  1  0  0  0  0
 15 35  1  0  0  0  0
 16 36  1  0  0  0  0
 16 37  1  0  0  0  0
 17 38  1  0  0  0  0
 17 39  1  0  0  0  0
 18 19  2  0  0  0  0
 18 21  1  0  0  0  0
 20 23  2  0  0  0  0
 20 24  1  0  0  0  0
 22 42  1  0  0  0  0
 23 29  1  0  0  0  0
 23 43  1  0  0  0  0
 24 30  2  0  0  0  0
 24 44  1  0  0  0  0
 25 28  1  0  0  0  0
 25 33  1  0  0  0  0
 25 46  1  0  0  0  0
 27 29  2  0  0  0  0
 27 30  1  0  0  0  0
 27 31  1  0  0  0  0
 28 32  1  0  0  0  0
 28 47  1  0  0  0  0
 28 48  1  0  0  0  0
 29 49  1  0  0  0  0
 30 50  1  0  0  0  0
 32 34  1  0  0  0  0
 32 52  1  0  0  0  0
 32 53  1  0  0  0  0
M  END
> <PUBCHEM_COMPOUND_CID>
135450591

> <PUBCHEM_CONFORMER_RMSD>
1.2

> <PUBCHEM_CONFORMER_DIVERSEORDER>
1
101
37
82
91
53
29
80
34
8
140
131
122
49
22
134
120
114
23
58
130
144
31
32
112
108
28
25
88
59
6
30
102
46
66
100
99
110
118
65
61
117
133
143
51
128
56
11
136
24
27
127
62
116
19
95
121
41
142
106
42
85
44
17
5
115
124
125
93
135
113
97
96
69
20
9
70
52
67
74
36
84
16
21
13
63
87
139
92
109
60
119
79
18
126
123
38
12
75
33
129
55
50
81
54
86
73
111
138
35
39
105
132
89
26
71
145
48
103
15
40
76
141
4
2
68
107
78
83
98
57
94
43
3
14
47
104
7
10
72
45
64
137
77
90

> <PUBCHEM_MMFF94_PARTIAL_CHARGES>
46
1 -0.57
10 -0.48
11 -0.62
12 -0.49
13 -0.73
14 -0.85
15 0.37
16 0.37
17 0.3
18 0.11
19 0.27
2 -0.57
20 0.12
21 0.62
22 0.57
23 -0.15
24 -0.15
25 0.36
26 0.56
27 0.09
29 -0.15
3 -0.57
30 -0.15
31 0.54
32 0.06
33 0.66
34 0.66
4 -0.65
40 0.4
41 0.4
42 0.06
43 0.15
44 0.15
45 0.37
49 0.15
5 -0.57
50 0.15
51 0.37
54 0.4
55 0.4
56 0.5
57 0.5
6 -0.65
7 -0.57
8 -0.87
9 -0.87

> <PUBCHEM_EFFECTIVE_ROTOR_COUNT>
11.8

> <PUBCHEM_PHARMACOPHORE_FEATURES>
19
1 1 acceptor
1 12 donor
1 13 donor
1 14 donor
1 2 acceptor
1 3 acceptor
1 4 acceptor
1 5 acceptor
1 6 acceptor
1 7 acceptor
1 8 cation
1 8 donor
1 9 cation
1 9 donor
3 4 5 33 anion
3 6 7 34 anion
6 11 12 18 19 21 26 rings
6 20 23 24 27 29 30 rings
6 8 9 15 16 18 19 rings

> <PUBCHEM_HEAVY_ATOM_COUNT>
34

> <PUBCHEM_ATOM_DEF_STEREO_COUNT>
1

> <PUBCHEM_ATOM_UDEF_STEREO_COUNT>
1

> <PUBCHEM_BOND_DEF_STEREO_COUNT>
0

> <PUBCHEM_BOND_UDEF_STEREO_COUNT>
0

> <PUBCHEM_ISOTOPIC_ATOM_COUNT>
0

> <PUBCHEM_COMPONENT_COUNT>
1

> <PUBCHEM_CACTVS_TAUTO_COUNT>
-1

> <PUBCHEM_CONFORMER_ID>
0812CFDF00000001

> <PUBCHEM_MMFF94_ENERGY>
95.6593

> <PUBCHEM_FEATURE_SELFOVERLAP>
96.627

> <PUBCHEM_SHAPE_FINGERPRINT>
12422481 6 18115309951770953859
12788726 201 18410865386209033096
14117953 113 18122058702439248124
14251757 5 18267039425462638566
15001296 14 18193552487446009707
15250474 111 18334572490624273068
15297060 5 18058720287086148370
15320294 125 18116418259792763738
15927050 60 18271534083775427917
16728300 4 18260821584329375267
20511986 3 18040428919690645772
20764821 26 18196389034705134086
21133410 171 17190890298417436502
23516275 137 17975163979392011194
23559900 14 18198626720834804205
24941158 1 16128094422151782550
3027735 51 18271538549734300775
338550 245 18187080629440968354
3680242 22 18189901915747477024
5085150 59 18342443825816655101
508706 21 18200042853224532007
5265222 85 18265637518030989197
6287921 2 17550103662823879131

> <PUBCHEM_SHAPE_MULTIPOLES>
623.75
12.64
5.26
1.87
9.33
2.86
0.28
-0.49
-0.84
-3.2
0.01
3.58
0.52
-3.09

> <PUBCHEM_SHAPE_SELFOVERLAP>
1324.657

> <PUBCHEM_SHAPE_VOLUME>
341.8

> <PUBCHEM_COORDINATE_TYPE>
2
5
10

$$$$
